16
Coordinates from ORCA-job m2
  C   -3.32352307142893      1.69108125452864     -0.06989110437951
  C   -3.34200676973941      0.35625179345645     -0.07470990176437
  C   -2.05312621300027      2.40737467623833     -0.35695234274243
  C   -2.09382959343710     -0.39439817187935     -0.37083403002533
  H   -4.25412217828812     -0.21528961255062      0.11916554315090
  H   -1.95266455861993     -0.40662676930686     -1.47137521005249
  H   -2.19373347891543     -1.45435990941602     -0.06850905165205
  H   -4.21923489374768      2.28664336319028      0.12786972043353
  H   -1.90218217322113      2.41846694683926     -1.45612293573214
  H   -2.12401917778363      3.46877744195301     -0.05163695986620
  C   -0.86405795457686      1.74997656185687      0.33257879652000
  C   -0.87783179818508      0.22331097623260      0.30925223704684
  H   0.07086278597707      2.12510035558483     -0.12729592866676
  H   -0.82718872773832      2.09229631467573      1.38572729373881
  H   0.03876796676454     -0.15399195503288     -0.18459266120199
  H   -0.82082016405972     -0.15062326637026      1.35064653519319
