8

C         -1.28997        4.93734        0.89590
C          0.22015        4.93352        0.83745
H          0.62281        4.15572        1.49043
H          0.61813        5.89899        1.15788
H          0.55641        4.73498       -0.18262
O         -1.82060        3.77116        0.65162
O         -1.95855        5.92430        1.12063
H         -2.78561        3.89400        0.70533
